# *********************
# External Forcing Data
# *********************
 &EXF_NML_01
 exf_iprec         = 32,
 exf_debugLev      = 3,
 &

# *********************
 &EXF_NML_02
 apressurefile       = 'P.bin',
 &

# *********************
 &EXF_NML_03
 &

# *********************
 &EXF_NML_04
 &

# *********************
 &EXF_NML_OBCS
 &
